Version 4
SHEET 1 888 680
WIRE -128 -16 -352 -16
WIRE 176 -16 -128 -16
WIRE 624 -16 400 -16
WIRE 672 -16 624 -16
WIRE -128 48 -128 -16
WIRE 176 64 -16 64
WIRE 592 64 400 64
WIRE 832 64 592 64
WIRE -352 80 -352 64
WIRE 176 144 80 144
WIRE 592 144 400 144
WIRE -16 160 -16 64
FLAG -128 128 0
FLAG -16 160 0
FLAG 80 224 0
FLAG 592 224 0
FLAG 832 144 0
FLAG -352 80 0
FLAG 624 -16 OUTPUT
SYMBOL res -144 32 R0
SYMATTR InstName R1
SYMATTR Value 10000
SYMATTR SpiceLine pwr=0.125
SYMBOL res 64 128 R0
SYMATTR InstName R2
SYMATTR Value 245000
SYMATTR SpiceLine tol=1 pwr=0.125
SYMBOL res 576 48 R0
SYMATTR InstName R3
SYMATTR Value 1000000
SYMATTR SpiceLine tol=1 pwr=0.125
SYMBOL res 576 128 R0
SYMATTR InstName R4
SYMATTR Value 887000
SYMATTR SpiceLine tol=1 pwr=0.125
SYMBOL voltage 832 48 R0
WINDOW 123 0 0 Left 0
WINDOW 39 0 0 Left 0
SYMATTR InstName V1
SYMATTR Value 5
SYMBOL voltage -352 -32 R0
WINDOW 3 24 44 Left 2
WINDOW 123 0 0 Left 0
WINDOW 39 0 0 Left 0
SYMATTR Value PULSE(0 5 1 1u 1u 11 15 2)
SYMATTR InstName V2
SYMBOL SpecialFunctions\\LTC6994-1 288 64 R0
SYMATTR InstName U1
TEXT -144 248 Left 2 !.tran 30
