Version 4
SHEET 1 1608 776
WIRE 240 -368 128 -368
WIRE 240 -320 240 -368
WIRE 128 -304 128 -368
WIRE 240 -128 240 -240
WIRE -80 -80 -176 -80
WIRE 192 -80 160 -80
WIRE -384 -48 -432 -48
WIRE -272 -48 -304 -48
WIRE 496 -32 400 -32
WIRE 640 -32 560 -32
WIRE 240 -16 240 -32
WIRE 400 -16 400 -32
WIRE 400 -16 240 -16
WIRE 496 -16 448 -16
WIRE -1248 16 -1344 16
WIRE 240 16 240 -16
WIRE 640 16 640 -32
WIRE 720 16 640 16
WIRE -1072 32 -1120 32
WIRE 640 32 640 16
WIRE 640 32 432 32
WIRE -176 48 -176 -80
WIRE -272 64 -272 -48
WIRE -208 64 -272 64
WIRE 448 64 448 -16
WIRE 640 64 448 64
WIRE 160 80 160 -80
WIRE 160 80 -144 80
WIRE -592 96 -656 96
WIRE -464 96 -512 96
WIRE -208 96 -464 96
WIRE -1120 112 -1120 32
WIRE -1120 112 -1200 112
WIRE 640 128 640 64
WIRE 640 128 560 128
WIRE -1200 144 -1200 112
WIRE 240 144 240 96
WIRE 432 144 432 32
WIRE 496 144 432 144
WIRE -1248 160 -1248 16
WIRE -1232 160 -1248 160
WIRE 416 160 304 160
WIRE 496 160 416 160
WIRE -976 176 -1168 176
WIRE -1392 192 -1424 192
WIRE -1232 192 -1312 192
WIRE 304 192 304 160
WIRE -1424 208 -1424 192
WIRE 416 208 416 160
WIRE -1120 240 -1120 112
WIRE -1120 240 -1200 240
WIRE -976 240 -976 176
WIRE -816 240 -976 240
WIRE -656 240 -656 96
WIRE -656 240 -752 240
WIRE -1200 272 -1200 240
WIRE -816 272 -976 272
WIRE -1408 288 -1424 288
WIRE -1232 288 -1328 288
WIRE -1424 304 -1424 288
WIRE -976 304 -976 272
WIRE -976 304 -1168 304
WIRE -1232 320 -1312 320
WIRE 720 368 720 16
WIRE 752 368 720 368
WIRE 1072 368 816 368
WIRE 752 400 720 400
WIRE -96 416 -160 416
WIRE -96 432 -96 416
WIRE -464 480 -480 480
WIRE -240 480 -384 480
WIRE -160 576 -160 416
WIRE -240 592 -240 480
WIRE -192 592 -240 592
WIRE 720 608 720 400
WIRE 720 608 -128 608
WIRE -656 624 -656 240
WIRE -560 624 -656 624
WIRE -432 624 -480 624
WIRE -192 624 -432 624
WIRE -432 672 -432 624
FLAG -1200 208 0
FLAG -1200 336 0
FLAG -432 736 0
FLAG -160 640 0
FLAG -464 160 0
FLAG -1072 112 0
FLAG 128 -304 0
FLAG 240 144 0
FLAG 304 336 0
FLAG 416 288 0
FLAG -176 112 0
FLAG -96 512 0
FLAG -80 0 0
FLAG -1424 208 0
FLAG -1424 304 0
FLAG -1344 96 0
FLAG -1312 400 0
FLAG -432 -48 0
FLAG -480 480 0
SYMBOL cap -480 96 R0
SYMATTR InstName C2
SYMATTR Value 47µ
SYMATTR SpiceLine V=4 Irms=0 Rser=0 Lser=0 mfg="Murata" pn="GRM219R60G476ME44" type="X5R"
SYMBOL res -496 80 R90
WINDOW 0 0 56 VBottom 2
WINDOW 3 63 60 VBottom 2
SYMATTR InstName R1
SYMATTR Value 10K
SYMATTR SpiceLine tol=1 pwr=0.1
SYMBOL res -464 608 R90
WINDOW 0 0 56 VBottom 2
WINDOW 3 66 59 VBottom 2
SYMATTR InstName R2
SYMATTR Value 100K
SYMATTR SpiceLine tol=1 pwr=0.1
SYMBOL Digital\\or 528 -80 R0
SYMATTR InstName A1
SYMBOL Digital\\or 528 80 R0
SYMATTR InstName A2
SYMBOL voltage -1072 16 R0
WINDOW 123 0 0 Left 0
WINDOW 39 0 0 Left 0
SYMATTR InstName LVMS
SYMATTR Value 5
SYMBOL pmos 192 -128 R0
SYMATTR InstName M1
SYMBOL voltage 240 -224 R180
WINDOW 0 24 96 Left 2
WINDOW 3 24 16 Left 2
WINDOW 123 0 0 Left 0
WINDOW 39 0 0 Left 0
SYMATTR InstName LVMS02
SYMATTR Value 5
SYMBOL res 224 0 R0
SYMATTR InstName R3
SYMATTR Value 1K
SYMATTR SpiceLine tol=1 pwr=0.1
SYMBOL voltage 304 240 R0
WINDOW 123 0 0 Left 0
WINDOW 39 0 0 Left 0
WINDOW 0 -106 56 Left 2
SYMATTR InstName LVMS04
SYMATTR Value 5
SYMBOL cap 288 192 R0
SYMATTR InstName C3
SYMBOL res 400 192 R0
SYMATTR InstName R4
SYMATTR Value 1K
SYMATTR SpiceLine tol=1 pwr=0.1
SYMBOL voltage -80 -96 R0
WINDOW 123 0 0 Left 0
WINDOW 39 0 0 Left 0
SYMATTR InstName LVMS01
SYMATTR Value 5
SYMBOL voltage -96 416 R0
WINDOW 123 0 0 Left 0
WINDOW 39 0 0 Left 0
WINDOW 0 24 16 Left 1
SYMATTR InstName LVMS03
SYMATTR Value 5
SYMBOL voltage -1344 0 R0
WINDOW 123 0 0 Left 0
WINDOW 39 0 0 Left 0
WINDOW 0 24 16 Left 1
SYMATTR InstName V_FRN_SOGLIA1
SYMATTR Value 2
SYMBOL voltage -1296 192 R90
WINDOW 0 -32 56 VBottom 1
WINDOW 3 32 56 VTop 2
WINDOW 123 0 0 Left 0
WINDOW 39 0 0 Left 0
SYMATTR InstName V_FRN_VAL1
SYMATTR Value ""
SYMBOL voltage -1312 288 R90
WINDOW 0 -32 56 VBottom 1
WINDOW 3 32 56 VTop 2
WINDOW 123 0 0 Left 0
WINDOW 39 0 0 Left 0
SYMATTR InstName V_PW_SOGLIA1
SYMATTR Value 3.5
SYMBOL voltage -1312 304 R0
WINDOW 123 0 0 Left 0
WINDOW 39 0 0 Left 0
WINDOW 0 43 59 Left 1
SYMATTR InstName V_PW_EROGATA1
SYMATTR Value ""
SYMBOL Digital\\and -784 192 R0
SYMATTR InstName A3
SYMBOL Digital\\or 784 320 R0
SYMATTR InstName A4
SYMBOL OpAmps\\UniversalOpAmp -1200 176 R0
WINDOW 0 16 -32 Left 1
SYMATTR InstName Comp_Freno1
SYMBOL OpAmps\\UniversalOpAmp -1200 304 R0
WINDOW 0 16 -32 Left 1
SYMATTR InstName Comp_acc1
SYMBOL OpAmps\\UniversalOpAmp -176 80 R0
SYMATTR InstName COMP_10S
SYMBOL OpAmps\\UniversalOpAmp -160 608 R0
SYMATTR InstName COMP_500MS
SYMBOL polcap -448 672 R0
WINDOW 3 24 56 Left 2
SYMATTR Value 100µ
SYMATTR InstName C1
SYMATTR Description Capacitor
SYMATTR Type cap
SYMATTR SpiceLine V=3 Irms=2.25389 Rser=0.025 Lser=0 mfg="KEMET" pn="T520B107M003ATE025" type="Tantalum"
SYMBOL voltage -288 -48 R90
WINDOW 0 -32 56 VBottom 2
WINDOW 3 32 56 VTop 2
WINDOW 123 0 0 Left 0
WINDOW 39 0 0 Left 0
SYMATTR InstName V1
SYMATTR Value 3.8
SYMBOL voltage -368 480 R90
WINDOW 0 -32 56 VBottom 2
WINDOW 3 32 56 VTop 2
WINDOW 123 0 0 Left 0
WINDOW 39 0 0 Left 0
SYMATTR InstName V2
SYMATTR Value 2.8
TEXT -1608 192 Center 2 ;VALORE PRESSIONE FRENO
TEXT -512 -168 Center 1 ;SE CONDIZIONE DI NON SICUREZZA >10S
TEXT -1752 64 Left 2 ;SOGLIA PRESSIONE FRENO
TEXT -1792 272 Left 1 ;SOGLIA POTENZA EROGATA (V EQUIVALENTE A 5KW)
TEXT 552 -136 Center 1 ;UTILIZZO IL LATCH PER MEMORIZZARE ERRORE >10S
TEXT -1776 368 Left 2 ;VALORE POTENZA EROGATA (IN VOLT)
TEXT -656 -136 Left 1 ;OUT = 1 (= VDD, NO SAFE)
TEXT -368 680 Left 1 ;SE CONDIZIONE DI NON SICUREZZA >500MS
TEXT -368 704 Left 1 ;OUT = 1 ( = VDD, NO SAFE)
TEXT 344 -112 Left 1 ;RESET MANUALE TRAMITE POWER CYCLE
TEXT 368 336 Left 1 ;POWER CYCLE
TEXT -400 16 Left 1 ;Val di soglia
TEXT -336 592 Left 1 ;Val di soglia
TEXT -1792 760 Left 2 !.tran 30
