Version 4
SHEET 1 2984 1044
WIRE 192 -112 96 -112
WIRE 96 -32 96 -112
WIRE 96 -32 16 -32
WIRE 16 32 16 -32
WIRE 240 64 48 64
WIRE -16 80 -96 80
WIRE 240 128 240 64
WIRE 272 128 240 128
WIRE 560 128 336 128
WIRE 96 144 96 -32
WIRE 96 144 16 144
WIRE 272 160 240 160
WIRE 16 176 16 144
WIRE -16 192 -96 192
WIRE 240 208 240 160
WIRE 240 208 48 208
WIRE 560 240 560 128
WIRE 640 240 560 240
WIRE 864 240 704 240
WIRE 640 256 560 256
WIRE 96 272 96 144
WIRE 96 272 16 272
WIRE 1648 288 1568 288
WIRE 16 304 16 272
WIRE 1248 304 1056 304
WIRE 1504 304 1248 304
WIRE 240 336 48 336
WIRE -16 352 -96 352
WIRE 1648 400 1648 288
WIRE 1728 400 1648 400
WIRE 96 416 96 272
WIRE 96 416 16 416
WIRE 240 416 240 336
WIRE 272 416 240 416
WIRE 560 416 560 256
WIRE 560 416 336 416
WIRE 1728 416 1648 416
WIRE 16 432 16 416
WIRE -16 448 -96 448
WIRE 272 448 240 448
WIRE 240 464 240 448
WIRE 240 464 48 464
WIRE 864 496 864 240
WIRE 912 496 864 496
WIRE 1056 496 1056 304
WIRE 1056 496 976 496
WIRE 912 528 864 528
WIRE 96 608 96 416
WIRE 96 608 16 608
WIRE 1648 608 1648 416
WIRE 1648 608 1552 608
WIRE 1056 624 1056 496
WIRE 1248 624 1056 624
WIRE 1488 624 1248 624
WIRE 16 640 16 608
WIRE 240 672 48 672
WIRE 1248 672 1248 624
WIRE -16 688 -96 688
WIRE 96 736 96 608
WIRE 96 736 16 736
WIRE 240 736 240 672
WIRE 272 736 240 736
WIRE 864 736 864 528
WIRE 864 736 336 736
WIRE 16 768 16 736
WIRE 272 768 240 768
WIRE 240 800 240 768
WIRE 240 800 48 800
WIRE -16 816 -96 816
FLAG 16 96 0
FLAG 16 240 0
FLAG 16 368 0
FLAG 16 496 0
FLAG 16 704 0
FLAG 16 832 0
FLAG 192 -32 0
FLAG 1248 736 0
FLAG 1520 640 0
FLAG 1248 368 0
SYMBOL OpAmps\\UniversalOpAmp 16 64 R0
SYMATTR InstName U1
SYMBOL OpAmps\\UniversalOpAmp 16 208 R0
SYMATTR InstName U2
SYMBOL OpAmps\\UniversalOpAmp 16 336 R0
SYMATTR InstName U3
SYMBOL OpAmps\\UniversalOpAmp 16 464 R0
SYMATTR InstName U4
SYMBOL OpAmps\\UniversalOpAmp 16 672 R0
SYMATTR InstName U7
SYMBOL OpAmps\\UniversalOpAmp 16 800 R0
SYMATTR InstName U8
SYMBOL voltage 192 -128 R0
WINDOW 123 0 0 Left 0
WINDOW 39 0 0 Left 0
SYMATTR InstName V1
SYMATTR Value 5
SYMBOL cap 1232 672 R0
SYMATTR InstName C1
SYMBOL OpAmps\\UniversalOpAmp 1520 608 R0
SYMATTR InstName U6
SYMBOL cap 1232 304 R0
SYMATTR InstName C2
SYMBOL OpAmps\\UniversalOpAmp 1536 288 R0
SYMATTR InstName U9
SYMBOL Digital\\or 1760 352 R0
SYMATTR InstName A3
SYMBOL Digital\\or 304 80 R0
SYMATTR InstName A1
SYMBOL Digital\\or 304 368 R0
SYMATTR InstName A2
SYMBOL Digital\\or 304 688 R0
SYMATTR InstName A4
SYMBOL Digital\\or 672 192 R0
SYMATTR InstName A5
SYMBOL Digital\\or 944 448 R0
SYMATTR InstName A6
TEXT -240 688 Center 1 ;hard braking < soglia max, out = 0
TEXT -232 816 Center 1 ;potenza erogata < 5kw, out = 0
TEXT -224 80 Center 1 ;val freno < soglia max out=0
TEXT -328 192 Left 1 ;val freno > soglia min, out = 0
TEXT -216 352 Center 1 ;val acc < soglia max, out = 0
TEXT 1392 592 Center 1 ;>500ms errore, out = 1
TEXT 1400 264 Center 1 ;>10s no safe, out=1
TEXT -72 -240 Left 2 ;0 = condizione safe
TEXT -216 448 Center 1 ;val acc > soglia min, out = 0
TEXT -104 48 Left 1 ;soglia max
TEXT -104 312 Left 1 ;soglia max
TEXT -112 656 Left 1 ;soglia max
TEXT -96 480 Left 1 ;soglia min
TEXT -88 776 Left 1 ;5kW
TEXT -96 224 Left 1 ;soglia min
TEXT 2032 256 Center 1 ;serve un latch per memorizzare fail>10s, T11.6
