Version 4
SHEET 1 968 680
WIRE 176 -240 112 -240
WIRE -304 -144 -400 -144
WIRE -128 -128 -176 -128
WIRE 176 -128 176 -240
WIRE 368 -128 176 -128
WIRE 656 -128 368 -128
WIRE 176 -64 176 -128
WIRE 368 -64 368 -128
WIRE -176 -48 -176 -128
WIRE -176 -48 -256 -48
WIRE 656 -48 656 -128
WIRE -256 -16 -256 -48
WIRE -304 0 -304 -144
WIRE -288 0 -304 0
WIRE 128 16 -224 16
WIRE 144 16 128 16
WIRE -448 32 -480 32
WIRE -288 32 -368 32
WIRE 288 32 176 32
WIRE 368 32 288 32
WIRE -480 48 -480 32
WIRE -176 80 -176 -48
WIRE -176 80 -256 80
WIRE -256 112 -256 80
WIRE 64 112 -32 112
WIRE 320 112 320 16
WIRE 320 112 64 112
WIRE -464 128 -480 128
WIRE -288 128 -384 128
WIRE 288 128 288 32
WIRE 608 128 608 32
WIRE 608 128 288 128
WIRE 656 128 656 48
WIRE 784 128 656 128
WIRE -480 144 -480 128
WIRE -32 144 -32 112
WIRE -32 144 -224 144
WIRE 288 144 288 128
WIRE -288 160 -368 160
WIRE 656 160 656 128
WIRE 128 192 128 16
WIRE 224 192 128 192
WIRE 224 224 224 192
WIRE 240 224 224 224
WIRE 608 240 608 128
WIRE 288 288 288 240
WIRE 64 368 64 112
WIRE 240 368 64 368
WIRE 656 368 656 256
WIRE 288 480 288 384
FLAG -256 48 0
FLAG -256 176 0
FLAG -128 -48 0
FLAG -480 48 0
FLAG -480 144 0
FLAG -400 -64 0
FLAG -368 240 0
FLAG 112 -160 0
FLAG 656 368 0
FLAG 784 128 andOutput
IOPIN 784 128 Out
FLAG 288 480 0
SYMBOL voltage -128 -144 R0
WINDOW 123 0 0 Left 0
WINDOW 39 0 0 Left 0
SYMATTR InstName V1
SYMATTR Value 5
SYMBOL Comparators\\LT1720 -256 -48 R0
SYMATTR InstName U1
SYMBOL Comparators\\LT1720 -256 80 R0
SYMATTR InstName U2
SYMBOL voltage -400 -160 R0
WINDOW 123 0 0 Left 0
WINDOW 39 0 0 Left 0
SYMATTR InstName V2
SYMATTR Value 2
SYMBOL voltage -352 32 R90
WINDOW 0 -32 56 VBottom 2
WINDOW 3 32 56 VTop 2
WINDOW 123 0 0 Left 0
WINDOW 39 0 0 Left 0
SYMATTR InstName V3
SYMATTR Value PULSE(0 5 0 5 5 10 20)
SYMBOL voltage -368 128 R90
WINDOW 0 -32 56 VBottom 2
WINDOW 3 32 56 VTop 2
WINDOW 123 0 0 Left 0
WINDOW 39 0 0 Left 0
SYMATTR InstName V4
SYMATTR Value 3.5
SYMBOL voltage -368 144 R0
WINDOW 123 0 0 Left 0
WINDOW 39 0 0 Left 0
SYMATTR InstName V5
SYMATTR Value PULSE(0 5 0 5 5 10 20)
SYMBOL pmos 128 -64 R0
SYMATTR InstName M1
SYMATTR Value IRF9640
SYMBOL pmos 320 -64 R0
SYMATTR InstName M2
SYMATTR Value IRF9640
SYMBOL nmos 240 144 R0
SYMATTR InstName M3
SYMATTR Value BSP89
SYMBOL nmos 240 288 R0
SYMATTR InstName M4
SYMATTR Value BSP89
SYMBOL voltage 112 -256 R0
WINDOW 123 0 0 Left 0
WINDOW 39 0 0 Left 0
SYMATTR InstName V6
SYMATTR Value 5
SYMBOL pmos 608 -48 R0
SYMATTR InstName M5
SYMATTR Value IRF9640
SYMBOL nmos 608 160 R0
SYMATTR InstName M6
SYMATTR Value BSP89
TEXT -672 24 Center 1 ;hard braking < soglia max, out = 0
TEXT -672 168 Center 1 ;potenza erogata < 5kw, out = 0
TEXT -624 -8 Left 1 ;soglia max
TEXT -584 128 Left 1 ;5kW
TEXT -808 440 Left 2 !.tran 10
