Version 4
SHEET 1 1080 680
WIRE 352 -528 48 -528
WIRE 512 -528 416 -528
WIRE 512 -432 512 -528
WIRE 48 -384 48 -528
WIRE 160 -384 48 -384
WIRE 320 -384 224 -384
WIRE 48 -304 48 -384
WIRE 320 -288 320 -384
WIRE 48 -144 48 -224
WIRE 320 -144 320 -208
WIRE 320 -144 48 -144
WIRE 512 -144 512 -352
WIRE 512 -144 320 -144
WIRE 48 -128 48 -144
FLAG 48 -128 0
SYMBOL voltage 48 -320 R0
WINDOW 123 24 124 Left 2
WINDOW 39 0 0 Left 0
SYMATTR InstName V2
SYMATTR Value SINE(0 1 1k)
SYMATTR Value2 AC 1
SYMBOL res 304 -304 R0
SYMATTR InstName R1
SYMATTR Value 1k
SYMBOL schottky 160 -368 R270
WINDOW 0 32 32 VTop 2
WINDOW 3 0 32 VBottom 2
SYMATTR InstName D1
SYMATTR Value 1N5817
SYMATTR Description Diode
SYMATTR Type diode
SYMBOL res 496 -448 R0
SYMATTR InstName R2
SYMATTR Value 1k
SYMBOL diode 352 -512 R270
WINDOW 0 32 32 VTop 2
WINDOW 3 0 32 VBottom 2
SYMATTR InstName D2
SYMATTR Value 1N914
TEXT 8 -96 Left 2 !.tran 2ms
